contingency_data_gen/configs/networks/matpower_LV_urban.m
function mpc = matpower_LV_urban
%Please see CASEFORMAT for details on the case file format.
% MATPOWER Case Format : Version 2
mpc.version = '2';
%-----  Power Flow Data  -----%%
% system MVA base
mpc.baseMVA = 0.01;
% bus data
%bus_i type Pd	Qd Gs Bs area Vm Va baseKV zone	Vmax Vmin
mpc.bus = [
1	1	0	0	0	0	1	1	0	0.4	1	1.1	0.9
2	1	0.0024	0.00072	0	0	1	1	0	0.4	1	1.1	0.9
3	1	0.08	0.024	0	0	1	1	0	0.4	1	1.1	0.9
4	1	0.04	0.012	0	0	1	1	0	0.4	1	1.1	0.9
5	1	0.012	0.0036	0	0	1	1	0	0.4	1	1.1	0.9
6	1	0.008	0.0024	0	0	1	1	0	0.4	1	1.1	0.9
7	1	0.06	0.018	0	0	1	1	0	0.4	1	1.1	0.9
8	1	0.024	0.0072	0	0	1	1	0	0.4	1	1.1	0.9
9	1	0.024	0.0072	0	0	1	1	0	0.4	1	1.1	0.9
10	1	0.024	0.0072	0	0	1	1	0	0.4	1	1.1	0.9
11	1	0.036	0.0108	0	0	1	1	0	0.4	1	1.1	0.9
12	1	0.12	0.036	0	0	1	1	0	0.4	1	1.1	0.9
13	3	0	0	0	0	1	1	0	20	1	1.1	0.9
];
%% generator data
% bus Pg Qg Qmax Qmin Vg mBase status Pmax Pmin Pc1 Pc2 Qc1min Qc1max Qc2min Qc2max ramp_agc ramp_10 ramp_30 ramp_q apf
mpc.gen = [
13 0 0 1000 -1000 1.0 0.01 1 1000 0 0 0 0 0 0 0 0 0 0 0 0];
%% branch data
%fbus tbus	r x b rA rB rC rat ang status angmin angmax
mpc.branch = [
2	1	0.000859562	0.000165306	0	0.176669	0.176669	0.176669	0	0	1	-360	360
3	2	0.000555994	0.000106919	0	0.176669	0.176669	0.176669	0	0	1	-360	360
4	3	0.000676188	0.000130044	0	0.176669	0.176669	0.176669	0	0	1	-360	360
5	4	0.000813563	0.00015645	0	0.176669	0.176669	0.176669	0	0	1	-360	360
6	5	0.000472388	9.08437E-05	0	0.176669	0.176669	0.176669	0	0	1	-360	360
7	1	0.000268038	0.000153162	0	0.290985	0.290985	0.290985	0	0	1	-360	360
8	7	0.000513337	9.87187E-05	0	0.176669	0.176669	0.176669	0	0	1	-360	360
9	8	0.000513094	0.000098675	0	0.176669	0.176669	0.176669	0	0	1	-360	360
10	9	0.000429662	0.000082625	0	0.176669	0.176669	0.176669	0	0	1	-360	360
11	10	0.000600169	0.000115419	0	0.176669	0.176669	0.176669	0	0	1	-360	360
12	1	0.00004001	0.00002001	0	0.176669	0.176669	0.176669	0	0	1	-360	360
13	1	0.00018254	0.000634921	0	0.63	0.63	0.63	0.973771	0	1	-360	360
];
